MATCHA pose 1
     RDKit          3D

 37 41  0  0  0  0  0  0  0  0999 V2000
   14.3000   61.6379    9.6039 C   0  0  0  0  0  0  0  0  0  0  0  0
   14.9900   60.8745   10.5324 C   0  0  0  0  0  0  0  0  0  0  0  0
   14.3696   59.9085   11.2941 C   0  0  0  0  0  0  0  0  0  0  0  0
   12.9974   59.7543   11.0633 C   0  0  0  0  0  0  0  0  0  0  0  0
   12.3384   60.4960   10.1642 N   0  0  0  0  0  0  0  0  0  0  0  0
   12.9585   61.4212    9.4420 C   0  0  0  0  0  0  0  0  0  0  0  0
   15.0306   59.0834   12.2735 C   0  0  0  0  0  0  0  0  0  0  0  0
   15.7881   59.6547   13.2711 C   0  0  0  0  0  0  0  0  0  0  0  0
   16.4077   58.8386   14.1918 C   0  0  0  0  0  0  0  0  0  0  0  0
   16.2308   57.5160   14.0562 N   0  0  0  0  0  0  0  0  0  0  0  0
   15.5072   56.9148   13.1078 C   0  0  0  0  0  0  0  0  0  0  0  0
   14.9051   57.7490   12.2097 N   0  0  0  0  0  0  0  0  0  0  0  0
   15.3189   55.5288   12.9615 N   0  0  0  0  0  0  0  0  0  0  0  0
   16.2810   54.5150   13.1153 C   0  0  0  0  0  0  0  0  0  0  0  0
   17.1499   54.2208   12.0512 C   0  0  0  0  0  0  0  0  0  0  0  0
   18.1097   53.2403   12.1449 C   0  0  0  0  0  0  0  0  0  0  0  0
   18.2725   52.4922   13.2874 C   0  0  0  0  0  0  0  0  0  0  0  0
   17.4349   52.7608   14.3424 C   0  0  0  0  0  0  0  0  0  0  0  0
   16.4622   53.7553   14.2460 C   0  0  0  0  0  0  0  0  0  0  0  0
   17.5606   52.0093   15.5627 N   0  0  0  0  0  0  0  0  0  0  0  0
   16.8510   52.5046   16.6799 C   0  0  0  0  0  0  0  0  0  0  0  0
   16.2659   51.6338   17.6841 C   0  0  0  0  0  0  0  0  0  0  0  0
   15.1293   51.9386   18.3825 C   0  0  0  0  0  0  0  0  0  0  0  0
   14.6254   51.0660   19.3243 C   0  0  0  0  0  0  0  0  0  0  0  0
   15.2568   49.8467   19.5947 C   0  0  0  0  0  0  0  0  0  0  0  0
   16.4014   49.5510   18.8841 C   0  0  0  0  0  0  0  0  0  0  0  0
   16.8944   50.4233   17.9513 C   0  0  0  0  0  0  0  0  0  0  0  0
   14.5012   49.1912   20.7022 C   0  0  0  0  0  0  0  0  0  0  0  0
   13.9016   47.9035   20.3298 N   0  0  0  0  0  0  0  0  0  0  0  0
   14.6346   47.4366   19.2064 C   0  0  0  0  0  0  0  0  0  0  0  0
   14.6377   45.9517   18.9918 C   0  0  0  0  0  0  0  0  0  0  0  0
   14.7813   45.2002   20.2086 N   0  0  2  0  0  0  0  0  0  0  0  0
   14.6505   43.7838   19.9377 C   0  0  0  0  0  0  0  0  0  0  0  0
   13.6842   45.5752   21.0742 C   0  0  0  0  0  0  0  0  0  0  0  0
   13.8675   47.0063   21.4434 C   0  0  0  0  0  0  0  0  0  0  0  0
   16.7500   53.7746   16.7612 O   0  0  0  0  0  0  0  0  0  0  0  0
   17.0390   54.9773   10.7958 C   0  0  0  0  0  0  0  0  0  0  0  0
  1  2  1  0
  1  6  2  0
  2  3  2  0
  3  4  1  0
  3  7  1  0
  4  5  2  0
  5  6  1  0
  7  8  1  0
  7 12  2  0
  8  9  2  0
  9 10  1  0
 10 11  2  0
 11 12  1  0
 11 13  1  0
 13 14  1  0
 14 15  2  0
 14 19  1  0
 15 16  1  0
 37 15  1  6
 16 17  2  0
 17 18  1  0
 18 19  2  0
 18 20  1  0
 20 21  1  0
 21 22  1  0
 21 36  2  0
 22 23  1  0
 22 27  2  0
 23 24  2  0
 24 25  1  0
 25 26  2  0
 25 28  1  0
 26 27  1  0
 28 29  1  1
 30 29  1  6
 35 29  1  6
 31 30  1  6
 31 32  1  0
 32 33  1  6
 32 34  1  0
 34 35  1  1
M  CHG  1  32   1
M  END
>  <pose_id>  (1) 
pose-01

>  <reference_rmsd>  (1) 
2.5266000000000002

$$$$
MATCHA pose 2
     RDKit          3D

 37 41  0  0  0  0  0  0  0  0999 V2000
   15.3840   54.1593   17.3326 C   0  0  0  0  0  0  0  0  0  0  0  0
   15.2809   54.3762   15.9620 C   0  0  0  0  0  0  0  0  0  0  0  0
   14.1207   54.0101   15.2990 C   0  0  0  0  0  0  0  0  0  0  0  0
   13.1320   53.4440   16.0697 C   0  0  0  0  0  0  0  0  0  0  0  0
   13.2374   53.2381   17.3893 N   0  0  0  0  0  0  0  0  0  0  0  0
   14.3497   53.5819   18.0650 C   0  0  0  0  0  0  0  0  0  0  0  0
   13.9167   54.1872   13.8696 C   0  0  0  0  0  0  0  0  0  0  0  0
   12.7198   54.6403   13.3285 C   0  0  0  0  0  0  0  0  0  0  0  0
   12.6633   54.7653   11.9492 C   0  0  0  0  0  0  0  0  0  0  0  0
   13.7184   54.4636   11.1486 N   0  0  0  0  0  0  0  0  0  0  0  0
   14.8569   54.0281   11.7147 C   0  0  0  0  0  0  0  0  0  0  0  0
   14.9465   53.8943   13.0620 N   0  0  0  0  0  0  0  0  0  0  0  0
   16.0202   53.6710   10.9831 N   0  0  0  0  0  0  0  0  0  0  0  0
   17.0329   52.8016   11.3791 C   0  0  0  0  0  0  0  0  0  0  0  0
   18.0651   52.5205   10.4662 C   0  0  0  0  0  0  0  0  0  0  0  0
   19.0872   51.6601   10.8093 C   0  0  0  0  0  0  0  0  0  0  0  0
   19.0968   51.0718   12.0552 C   0  0  0  0  0  0  0  0  0  0  0  0
   18.0631   51.3574   12.9603 C   0  0  0  0  0  0  0  0  0  0  0  0
   17.0328   52.2106   12.6446 C   0  0  0  0  0  0  0  0  0  0  0  0
   18.1763   50.6731   14.2139 N   0  0  0  0  0  0  0  0  0  0  0  0
   16.9435   50.4809   14.9200 C   0  0  0  0  0  0  0  0  0  0  0  0
   16.5740   51.3106   16.0720 C   0  0  0  0  0  0  0  0  0  0  0  0
   17.6019   52.1400   16.5448 C   0  0  0  0  0  0  0  0  0  0  0  0
   17.3653   52.9534   17.6429 C   0  0  0  0  0  0  0  0  0  0  0  0
   16.1066   52.9160   18.2374 C   0  0  0  0  0  0  0  0  0  0  0  0
   15.0955   52.1024   17.7719 C   0  0  0  0  0  0  0  0  0  0  0  0
   15.3311   51.2755   16.6593 C   0  0  0  0  0  0  0  0  0  0  0  0
   15.0882   53.6066   19.3132 C   0  0  0  0  0  0  0  0  0  0  0  0
   14.8493   55.0016   19.3936 N   0  0  0  0  0  0  0  0  0  0  0  0
   14.7026   55.7313   18.1805 C   0  0  0  0  0  0  0  0  0  0  0  0
   13.2681   55.6494   17.7566 C   0  0  0  0  0  0  0  0  0  0  0  0
   12.3484   56.0267   18.8086 N   0  0  2  0  0  0  0  0  0  0  0  0
   12.1286   57.4434   18.8716 C   0  0  0  0  0  0  0  0  0  0  0  0
   12.6311   55.4780   20.0933 C   0  0  0  0  0  0  0  0  0  0  0  0
   14.0886   55.4804   20.4877 C   0  0  0  0  0  0  0  0  0  0  0  0
   16.1884   49.5713   14.5058 O   0  0  0  0  0  0  0  0  0  0  0  0
   18.0747   53.1178    9.1273 C   0  0  0  0  0  0  0  0  0  0  0  0
  1  2  1  0
  1  6  2  0
  2  3  2  0
  3  4  1  0
  3  7  1  0
  4  5  2  0
  5  6  1  0
  7  8  1  0
  7 12  2  0
  8  9  2  0
  9 10  1  0
 10 11  2  0
 11 12  1  0
 11 13  1  0
 13 14  1  0
 14 15  2  0
 14 19  1  0
 15 16  1  0
 37 15  1  6
 16 17  2  0
 17 18  1  0
 18 19  2  0
 18 20  1  0
 20 21  1  0
 21 22  1  0
 21 36  2  0
 22 23  1  0
 22 27  2  0
 23 24  2  0
 24 25  1  0
 25 26  2  0
 25 28  1  0
 26 27  1  0
 28 29  1  1
 30 29  1  6
 35 29  1  6
 31 30  1  6
 31 32  1  0
 32 33  1  1
 32 34  1  0
 34 35  1  1
M  CHG  1  32   1
M  END
>  <pose_id>  (2) 
pose-02

>  <reference_rmsd>  (2) 
6.5846

$$$$
MATCHA pose 3
     RDKit          3D

 37 41  0  0  0  0  0  0  0  0999 V2000
   11.1366   60.5960   10.1140 C   0  0  0  0  0  0  0  0  0  0  0  0
   12.2318   59.7675   10.3872 C   0  0  0  0  0  0  0  0  0  0  0  0
   13.0580   59.9659   11.4649 C   0  0  0  0  0  0  0  0  0  0  0  0
   12.7586   61.0396   12.2872 C   0  0  0  0  0  0  0  0  0  0  0  0
   11.7086   61.8606   12.0535 N   0  0  0  0  0  0  0  0  0  0  0  0
   10.9131   61.6530   10.9980 C   0  0  0  0  0  0  0  0  0  0  0  0
   14.2170   59.0928   11.7490 C   0  0  0  0  0  0  0  0  0  0  0  0
   15.1585   58.9065   10.7677 C   0  0  0  0  0  0  0  0  0  0  0  0
   16.2275   58.0928   11.0675 C   0  0  0  0  0  0  0  0  0  0  0  0
   16.3635   57.5038   12.2464 N   0  0  0  0  0  0  0  0  0  0  0  0
   15.4194   57.7018   13.2042 C   0  0  0  0  0  0  0  0  0  0  0  0
   14.3892   58.4867   12.9123 N   0  0  0  0  0  0  0  0  0  0  0  0
   15.6455   57.0510   14.4403 N   0  0  0  0  0  0  0  0  0  0  0  0
   16.6006   56.0536   14.7165 C   0  0  0  0  0  0  0  0  0  0  0  0
   17.7627   55.9816   13.9256 C   0  0  0  0  0  0  0  0  0  0  0  0
   18.7278   55.0255   14.1420 C   0  0  0  0  0  0  0  0  0  0  0  0
   18.6134   54.0869   15.1414 C   0  0  0  0  0  0  0  0  0  0  0  0
   17.4843   54.1399   15.9263 C   0  0  0  0  0  0  0  0  0  0  0  0
   16.5108   55.1081   15.7042 C   0  0  0  0  0  0  0  0  0  0  0  0
   17.3579   53.1682   16.9677 N   0  0  0  0  0  0  0  0  0  0  0  0
   16.2956   52.2124   16.8055 C   0  0  0  0  0  0  0  0  0  0  0  0
   16.4774   50.7982   17.1495 C   0  0  0  0  0  0  0  0  0  0  0  0
   17.3686   50.3805   18.1020 C   0  0  0  0  0  0  0  0  0  0  0  0
   17.4632   49.0114   18.3476 C   0  0  0  0  0  0  0  0  0  0  0  0
   16.6716   48.0991   17.6404 C   0  0  0  0  0  0  0  0  0  0  0  0
   15.7743   48.5213   16.6806 C   0  0  0  0  0  0  0  0  0  0  0  0
   15.7022   49.8900   16.4586 C   0  0  0  0  0  0  0  0  0  0  0  0
   16.8182   46.6805   18.0639 C   0  0  0  0  0  0  0  0  0  0  0  0
   15.6737   45.9021   18.3929 N   0  0  0  0  0  0  0  0  0  0  0  0
   14.8230   46.5141   19.3922 C   0  0  0  0  0  0  0  0  0  0  0  0
   15.3374   46.1084   20.7555 C   0  0  0  0  0  0  0  0  0  0  0  0
   15.0032   44.7113   20.9758 N   0  0  2  0  0  0  0  0  0  0  0  0
   16.1166   44.1504   21.7251 C   0  0  0  0  0  0  0  0  0  0  0  0
   14.9151   43.9877   19.7183 C   0  0  0  0  0  0  0  0  0  0  0  0
   15.9394   44.5399   18.7243 C   0  0  0  0  0  0  0  0  0  0  0  0
   15.2182   52.6736   16.3542 O   0  0  0  0  0  0  0  0  0  0  0  0
   17.9712   56.9689   12.8092 C   0  0  0  0  0  0  0  0  0  0  0  0
  1  2  1  0
  1  6  2  0
  2  3  2  0
  3  4  1  0
  3  7  1  0
  4  5  2  0
  5  6  1  0
  7  8  1  0
  7 12  2  0
  8  9  2  0
  9 10  1  0
 10 11  2  0
 11 12  1  0
 11 13  1  0
 13 14  1  0
 14 15  2  0
 14 19  1  0
 15 16  1  0
 37 15  1  6
 16 17  2  0
 17 18  1  0
 18 19  2  0
 18 20  1  0
 20 21  1  0
 21 22  1  0
 21 36  2  0
 22 23  1  0
 22 27  2  0
 23 24  2  0
 24 25  1  0
 25 26  2  0
 25 28  1  0
 26 27  1  0
 28 29  1  1
 30 29  1  6
 35 29  1  6
 31 30  1  6
 31 32  1  0
 32 33  1  1
 32 34  1  0
 34 35  1  1
M  CHG  1  32   1
M  END
>  <pose_id>  (3) 
pose-03

>  <reference_rmsd>  (3) 
2.5377000000000001

$$$$
MATCHA pose 4
     RDKit          3D

 37 41  0  0  0  0  0  0  0  0999 V2000
   12.7748   59.8383   14.6832 C   0  0  0  0  0  0  0  0  0  0  0  0
   13.8845   59.0264   14.9410 C   0  0  0  0  0  0  0  0  0  0  0  0
   15.1569   59.5040   14.7199 C   0  0  0  0  0  0  0  0  0  0  0  0
   15.2855   60.7853   14.2453 C   0  0  0  0  0  0  0  0  0  0  0  0
   14.2229   61.5867   13.9897 N   0  0  0  0  0  0  0  0  0  0  0  0
   12.9912   61.1221   14.2045 C   0  0  0  0  0  0  0  0  0  0  0  0
   16.2845   58.6242   15.0016 C   0  0  0  0  0  0  0  0  0  0  0  0
   17.5336   59.0789   15.3400 C   0  0  0  0  0  0  0  0  0  0  0  0
   18.5409   58.1721   15.5893 C   0  0  0  0  0  0  0  0  0  0  0  0
   18.2384   56.8746   15.4855 N   0  0  0  0  0  0  0  0  0  0  0  0
   17.0396   56.3757   15.1596 C   0  0  0  0  0  0  0  0  0  0  0  0
   16.0702   57.3067   14.9207 N   0  0  0  0  0  0  0  0  0  0  0  0
   16.7106   55.0122   15.0473 N   0  0  0  0  0  0  0  0  0  0  0  0
   17.5915   53.9167   15.1090 C   0  0  0  0  0  0  0  0  0  0  0  0
   18.4878   53.6920   14.0488 C   0  0  0  0  0  0  0  0  0  0  0  0
   19.3708   52.6372   14.0577 C   0  0  0  0  0  0  0  0  0  0  0  0
   19.4278   51.7437   15.1015 C   0  0  0  0  0  0  0  0  0  0  0  0
   18.5609   51.9429   16.1498 C   0  0  0  0  0  0  0  0  0  0  0  0
   17.6651   53.0129   16.1408 C   0  0  0  0  0  0  0  0  0  0  0  0
   18.6143   51.0221   17.2333 N   0  0  0  0  0  0  0  0  0  0  0  0
   17.9533   49.7586   17.1532 C   0  0  0  0  0  0  0  0  0  0  0  0
   16.5203   49.6540   17.0610 C   0  0  0  0  0  0  0  0  0  0  0  0
   15.8278   48.4747   16.8862 C   0  0  0  0  0  0  0  0  0  0  0  0
   14.4507   48.4368   16.8050 C   0  0  0  0  0  0  0  0  0  0  0  0
   13.6973   49.5737   16.8942 C   0  0  0  0  0  0  0  0  0  0  0  0
   14.3985   50.7713   17.0718 C   0  0  0  0  0  0  0  0  0  0  0  0
   15.7682   50.8088   17.1526 C   0  0  0  0  0  0  0  0  0  0  0  0
   12.2724   49.0510   16.7838 C   0  0  0  0  0  0  0  0  0  0  0  0
   11.6447   48.9215   15.5014 N   0  0  0  0  0  0  0  0  0  0  0  0
   11.8370   47.6668   14.8532 C   0  0  0  0  0  0  0  0  0  0  0  0
   11.5162   47.8046   13.3759 C   0  0  0  0  0  0  0  0  0  0  0  0
   10.5138   48.8138   13.1348 N   0  0  2  0  0  0  0  0  0  0  0  0
   11.1812   50.0642   12.9255 C   0  0  0  0  0  0  0  0  0  0  0  0
    9.5867   48.8948   14.2501 C   0  0  0  0  0  0  0  0  0  0  0  0
   10.2809   49.3823   15.4965 C   0  0  0  0  0  0  0  0  0  0  0  0
   18.7057   48.7422   17.1683 O   0  0  0  0  0  0  0  0  0  0  0  0
   18.4768   54.6138   12.9004 C   0  0  0  0  0  0  0  0  0  0  0  0
  1  2  1  0
  1  6  2  0
  2  3  2  0
  3  4  1  0
  3  7  1  0
  4  5  2  0
  5  6  1  0
  7  8  1  0
  7 12  2  0
  8  9  2  0
  9 10  1  0
 10 11  2  0
 11 12  1  0
 11 13  1  0
 13 14  1  0
 14 15  2  0
 14 19  1  0
 15 16  1  0
 37 15  1  6
 16 17  2  0
 17 18  1  0
 18 19  2  0
 18 20  1  0
 20 21  1  0
 21 22  1  0
 21 36  2  0
 22 23  1  0
 22 27  2  0
 23 24  2  0
 24 25  1  0
 25 26  2  0
 25 28  1  0
 26 27  1  0
 28 29  1  1
 30 29  1  6
 35 29  1  6
 31 30  1  6
 31 32  1  0
 32 33  1  1
 32 34  1  0
 34 35  1  1
M  CHG  1  32   1
M  END
>  <pose_id>  (4) 
pose-04

>  <reference_rmsd>  (4) 
5.556

$$$$
MATCHA pose 5
     RDKit          3D

 37 41  0  0  0  0  0  0  0  0999 V2000
   11.2650   60.1061   18.3782 C   0  0  0  0  0  0  0  0  0  0  0  0
   12.3987   60.1465   17.5556 C   0  0  0  0  0  0  0  0  0  0  0  0
   12.6284   59.1881   16.5902 C   0  0  0  0  0  0  0  0  0  0  0  0
   11.7126   58.1876   16.4553 C   0  0  0  0  0  0  0  0  0  0  0  0
   10.6151   58.1418   17.2466 N   0  0  0  0  0  0  0  0  0  0  0  0
   10.3612   59.0575   18.1947 C   0  0  0  0  0  0  0  0  0  0  0  0
   13.8370   59.3157   15.7863 C   0  0  0  0  0  0  0  0  0  0  0  0
   14.8156   60.2657   16.0407 C   0  0  0  0  0  0  0  0  0  0  0  0
   15.9367   60.2725   15.2022 C   0  0  0  0  0  0  0  0  0  0  0  0
   16.0623   59.3877   14.1827 N   0  0  0  0  0  0  0  0  0  0  0  0
   15.1036   58.4806   13.9573 C   0  0  0  0  0  0  0  0  0  0  0  0
   14.0135   58.4627   14.7611 N   0  0  0  0  0  0  0  0  0  0  0  0
   15.1358   57.5048   12.9283 N   0  0  0  0  0  0  0  0  0  0  0  0
   16.0704   56.4404   12.8698 C   0  0  0  0  0  0  0  0  0  0  0  0
   17.0138   56.4759   11.8682 C   0  0  0  0  0  0  0  0  0  0  0  0
   17.9264   55.4464   11.7766 C   0  0  0  0  0  0  0  0  0  0  0  0
   17.8745   54.3940   12.6967 C   0  0  0  0  0  0  0  0  0  0  0  0
   16.9460   54.3310   13.7034 C   0  0  0  0  0  0  0  0  0  0  0  0
   16.0413   55.3927   13.7620 C   0  0  0  0  0  0  0  0  0  0  0  0
   16.8284   53.3026   14.6555 N   0  0  0  0  0  0  0  0  0  0  0  0
   16.0802   52.1151   14.5407 C   0  0  0  0  0  0  0  0  0  0  0  0
   16.6062   50.7902   14.8579 C   0  0  0  0  0  0  0  0  0  0  0  0
   17.6959   50.5675   15.6577 C   0  0  0  0  0  0  0  0  0  0  0  0
   18.1721   49.2837   15.9446 C   0  0  0  0  0  0  0  0  0  0  0  0
   17.5363   48.1844   15.4126 C   0  0  0  0  0  0  0  0  0  0  0  0
   16.4391   48.3783   14.6049 C   0  0  0  0  0  0  0  0  0  0  0  0
   15.9877   49.6485   14.3359 C   0  0  0  0  0  0  0  0  0  0  0  0
   17.9269   46.7864   15.7199 C   0  0  0  0  0  0  0  0  0  0  0  0
   17.2766   46.2487   16.8662 N   0  0  0  0  0  0  0  0  0  0  0  0
   15.9478   45.8041   16.5969 C   0  0  0  0  0  0  0  0  0  0  0  0
   15.2115   45.4376   17.8680 C   0  0  0  0  0  0  0  0  0  0  0  0
   15.9655   44.5265   18.7059 N   0  0  2  0  0  0  0  0  0  0  0  0
   15.4039   44.6132   20.0495 C   0  0  0  0  0  0  0  0  0  0  0  0
   17.3492   44.8696   18.8142 C   0  0  0  0  0  0  0  0  0  0  0  0
   18.0094   45.1560   17.4790 C   0  0  0  0  0  0  0  0  0  0  0  0
   14.8887   52.1618   14.1469 O   0  0  0  0  0  0  0  0  0  0  0  0
   17.0576   57.6008   10.8867 C   0  0  0  0  0  0  0  0  0  0  0  0
  1  2  1  0
  1  6  2  0
  2  3  2  0
  3  4  1  0
  3  7  1  0
  4  5  2  0
  5  6  1  0
  7  8  1  0
  7 12  2  0
  8  9  2  0
  9 10  1  0
 10 11  2  0
 11 12  1  0
 11 13  1  0
 13 14  1  0
 14 15  2  0
 14 19  1  0
 15 16  1  0
 37 15  1  6
 16 17  2  0
 17 18  1  0
 18 19  2  0
 18 20  1  0
 20 21  1  0
 21 22  1  0
 21 36  2  0
 22 23  1  0
 22 27  2  0
 23 24  2  0
 24 25  1  0
 25 26  2  0
 25 28  1  0
 26 27  1  0
 28 29  1  1
 30 29  1  6
 35 29  1  6
 31 30  1  6
 31 32  1  0
 32 33  1  1
 32 34  1  0
 34 35  1  1
M  CHG  1  32   1
M  END
>  <pose_id>  (5) 
pose-05

>  <reference_rmsd>  (5) 
3.7166000000000001

$$$$
MATCHA pose 6
     RDKit          3D

 37 41  0  0  0  0  0  0  0  0999 V2000
   11.8671   58.8773   12.8939 C   0  0  0  0  0  0  0  0  0  0  0  0
   12.8564   58.2214   13.6098 C   0  0  0  0  0  0  0  0  0  0  0  0
   14.0605   58.8322   13.8655 C   0  0  0  0  0  0  0  0  0  0  0  0
   14.2392   60.1094   13.3851 C   0  0  0  0  0  0  0  0  0  0  0  0
   13.2597   60.7260   12.6906 N   0  0  0  0  0  0  0  0  0  0  0  0
   12.0842   60.1409   12.4361 C   0  0  0  0  0  0  0  0  0  0  0  0
   15.0692   58.1032   14.6218 C   0  0  0  0  0  0  0  0  0  0  0  0
   15.0427   57.9960   15.9943 C   0  0  0  0  0  0  0  0  0  0  0  0
   16.0299   57.2941   16.6125 C   0  0  0  0  0  0  0  0  0  0  0  0
   16.9848   56.7378   15.8571 N   0  0  0  0  0  0  0  0  0  0  0  0
   17.0613   56.8088   14.5232 C   0  0  0  0  0  0  0  0  0  0  0  0
   16.0548   57.5212   13.9287 N   0  0  0  0  0  0  0  0  0  0  0  0
   18.0548   56.2329   13.7139 N   0  0  0  0  0  0  0  0  0  0  0  0
   18.8667   55.1232   13.9942 C   0  0  0  0  0  0  0  0  0  0  0  0
   20.0944   55.0027   13.3325 C   0  0  0  0  0  0  0  0  0  0  0  0
   20.9516   53.9531   13.5453 C   0  0  0  0  0  0  0  0  0  0  0  0
   20.5809   52.9866   14.4459 C   0  0  0  0  0  0  0  0  0  0  0  0
   19.3720   53.0389   15.1438 C   0  0  0  0  0  0  0  0  0  0  0  0
   18.5714   54.1106   14.8812 C   0  0  0  0  0  0  0  0  0  0  0  0
   19.1074   51.9862   16.0417 N   0  0  0  0  0  0  0  0  0  0  0  0
   18.1626   51.9659   17.0758 C   0  0  0  0  0  0  0  0  0  0  0  0
   16.7866   51.4491   16.9123 C   0  0  0  0  0  0  0  0  0  0  0  0
   16.5947   50.1580   16.4955 C   0  0  0  0  0  0  0  0  0  0  0  0
   15.3449   49.6009   16.3178 C   0  0  0  0  0  0  0  0  0  0  0  0
   14.2263   50.3751   16.5700 C   0  0  0  0  0  0  0  0  0  0  0  0
   14.3878   51.6882   16.9941 C   0  0  0  0  0  0  0  0  0  0  0  0
   15.6734   52.2130   17.1613 C   0  0  0  0  0  0  0  0  0  0  0  0
   12.7846   50.0072   16.6570 C   0  0  0  0  0  0  0  0  0  0  0  0
   12.6189   48.7108   17.2066 N   0  0  0  0  0  0  0  0  0  0  0  0
   13.5226   47.7186   16.6854 C   0  0  0  0  0  0  0  0  0  0  0  0
   13.4196   46.4066   17.4321 C   0  0  0  0  0  0  0  0  0  0  0  0
   12.0685   45.9141   17.2356 N   0  0  2  0  0  0  0  0  0  0  0  0
   11.8321   45.5295   15.8664 C   0  0  0  0  0  0  0  0  0  0  0  0
   11.1195   46.8490   17.7583 C   0  0  0  0  0  0  0  0  0  0  0  0
   11.2752   48.2456   17.2668 C   0  0  0  0  0  0  0  0  0  0  0  0
   18.4398   52.3926   18.2141 O   0  0  0  0  0  0  0  0  0  0  0  0
   20.5196   56.0380   12.3498 C   0  0  0  0  0  0  0  0  0  0  0  0
  1  2  1  0
  1  6  2  0
  2  3  2  0
  3  4  1  0
  3  7  1  0
  4  5  2  0
  5  6  1  0
  7  8  1  0
  7 12  2  0
  8  9  2  0
  9 10  1  0
 10 11  2  0
 11 12  1  0
 11 13  1  0
 13 14  1  0
 14 15  2  0
 14 19  1  0
 15 16  1  0
 37 15  1  6
 16 17  2  0
 17 18  1  0
 18 19  2  0
 18 20  1  0
 20 21  1  0
 21 22  1  0
 21 36  2  0
 22 23  1  0
 22 27  2  0
 23 24  2  0
 24 25  1  0
 25 26  2  0
 25 28  1  0
 26 27  1  0
 28 29  1  1
 30 29  1  6
 35 29  1  6
 31 30  1  6
 31 32  1  0
 32 33  1  6
 32 34  1  0
 34 35  1  1
M  CHG  1  32   1
M  END
>  <pose_id>  (6) 
pose-06

>  <reference_rmsd>  (6) 
4.3750999999999998

$$$$
MATCHA pose 7
     RDKit          3D

 37 41  0  0  0  0  0  0  0  0999 V2000
   12.9826   59.9046   10.7031 C   0  0  0  0  0  0  0  0  0  0  0  0
   13.7572   58.9308   11.3196 C   0  0  0  0  0  0  0  0  0  0  0  0
   13.2031   57.9948   12.1593 C   0  0  0  0  0  0  0  0  0  0  0  0
   11.8446   58.0586   12.3679 C   0  0  0  0  0  0  0  0  0  0  0  0
   11.0676   58.9927   11.7830 N   0  0  0  0  0  0  0  0  0  0  0  0
   11.6131   59.9074   10.9616 C   0  0  0  0  0  0  0  0  0  0  0  0
   14.0721   57.0004   12.7741 C   0  0  0  0  0  0  0  0  0  0  0  0
   14.7948   57.2440   13.9205 C   0  0  0  0  0  0  0  0  0  0  0  0
   15.5766   56.2132   14.3932 C   0  0  0  0  0  0  0  0  0  0  0  0
   15.6174   55.0416   13.7552 N   0  0  0  0  0  0  0  0  0  0  0  0
   14.9284   54.7826   12.6464 C   0  0  0  0  0  0  0  0  0  0  0  0
   14.1519   55.8050   12.1761 N   0  0  0  0  0  0  0  0  0  0  0  0
   14.9370   53.5623   11.9346 N   0  0  0  0  0  0  0  0  0  0  0  0
   15.8478   52.5134   12.0332 C   0  0  0  0  0  0  0  0  0  0  0  0
   16.7832   52.3537   11.0183 C   0  0  0  0  0  0  0  0  0  0  0  0
   17.7256   51.3511   11.0216 C   0  0  0  0  0  0  0  0  0  0  0  0
   17.7341   50.4826   12.0691 C   0  0  0  0  0  0  0  0  0  0  0  0
   16.8273   50.5714   13.1332 C   0  0  0  0  0  0  0  0  0  0  0  0
   15.9229   51.5916   13.0594 C   0  0  0  0  0  0  0  0  0  0  0  0
   16.9428   49.6145   14.1501 N   0  0  0  0  0  0  0  0  0  0  0  0
   17.6244   49.7435   15.3744 C   0  0  0  0  0  0  0  0  0  0  0  0
   17.1679   50.6236   16.4660 C   0  0  0  0  0  0  0  0  0  0  0  0
   15.8843   51.0865   16.5650 C   0  0  0  0  0  0  0  0  0  0  0  0
   15.4890   51.9210   17.6176 C   0  0  0  0  0  0  0  0  0  0  0  0
   16.3849   52.3062   18.5945 C   0  0  0  0  0  0  0  0  0  0  0  0
   17.6823   51.8447   18.5037 C   0  0  0  0  0  0  0  0  0  0  0  0
   18.0520   51.0249   17.4613 C   0  0  0  0  0  0  0  0  0  0  0  0
   15.8933   53.1631   19.6786 C   0  0  0  0  0  0  0  0  0  0  0  0
   14.8816   52.6329   20.5006 N   0  0  0  0  0  0  0  0  0  0  0  0
   14.8882   51.2212   20.6808 C   0  0  0  0  0  0  0  0  0  0  0  0
   15.6113   50.7624   21.9172 C   0  0  0  0  0  0  0  0  0  0  0  0
   15.7407   51.7910   22.9174 N   0  0  2  0  0  0  0  0  0  0  0  0
   15.8249   51.1798   24.2308 C   0  0  0  0  0  0  0  0  0  0  0  0
   14.6110   52.6970   22.9315 C   0  0  0  0  0  0  0  0  0  0  0  0
   14.4271   53.3932   21.6057 C   0  0  0  0  0  0  0  0  0  0  0  0
   18.6737   49.1001   15.5936 O   0  0  0  0  0  0  0  0  0  0  0  0
   16.8155   53.2855    9.8400 C   0  0  0  0  0  0  0  0  0  0  0  0
  1  2  1  0
  1  6  2  0
  2  3  2  0
  3  4  1  0
  3  7  1  0
  4  5  2  0
  5  6  1  0
  7  8  1  0
  7 12  2  0
  8  9  2  0
  9 10  1  0
 10 11  2  0
 11 12  1  0
 11 13  1  0
 13 14  1  0
 14 15  2  0
 14 19  1  0
 15 16  1  0
 37 15  1  6
 16 17  2  0
 17 18  1  0
 18 19  2  0
 18 20  1  0
 20 21  1  0
 21 22  1  0
 21 36  2  0
 22 23  1  0
 22 27  2  0
 23 24  2  0
 24 25  1  0
 25 26  2  0
 25 28  1  0
 26 27  1  0
 28 29  1  1
 30 29  1  6
 35 29  1  6
 31 30  1  6
 31 32  1  0
 32 33  1  1
 32 34  1  0
 34 35  1  1
M  CHG  1  32   1
M  END
>  <pose_id>  (7) 
pose-07

>  <reference_rmsd>  (7) 
3.5893999999999999

$$$$
MATCHA pose 8
     RDKit          3D

 37 41  0  0  0  0  0  0  0  0999 V2000
    9.9111   57.0535   17.2147 C   0  0  0  0  0  0  0  0  0  0  0  0
   10.8328   57.3774   16.2346 C   0  0  0  0  0  0  0  0  0  0  0  0
   10.8126   56.7303   14.9947 C   0  0  0  0  0  0  0  0  0  0  0  0
    9.8322   55.7781   14.8396 C   0  0  0  0  0  0  0  0  0  0  0  0
    8.9519   55.4824   15.8026 N   0  0  0  0  0  0  0  0  0  0  0  0
    8.9671   56.1006   16.9943 C   0  0  0  0  0  0  0  0  0  0  0  0
   11.7773   57.0509   13.9468 C   0  0  0  0  0  0  0  0  0  0  0  0
   12.2929   58.3193   13.8566 C   0  0  0  0  0  0  0  0  0  0  0  0
   13.2009   58.5583   12.8535 C   0  0  0  0  0  0  0  0  0  0  0  0
   13.5938   57.6302   11.9828 N   0  0  0  0  0  0  0  0  0  0  0  0
   13.0602   56.3763   12.1009 C   0  0  0  0  0  0  0  0  0  0  0  0
   12.1766   56.1280   13.0702 N   0  0  0  0  0  0  0  0  0  0  0  0
   13.5210   55.4247   11.1580 N   0  0  0  0  0  0  0  0  0  0  0  0
   14.4910   54.4339   11.3424 C   0  0  0  0  0  0  0  0  0  0  0  0
   15.3954   54.1600   10.3100 C   0  0  0  0  0  0  0  0  0  0  0  0
   16.3645   53.1831   10.4363 C   0  0  0  0  0  0  0  0  0  0  0  0
   16.4988   52.4243   11.5777 C   0  0  0  0  0  0  0  0  0  0  0  0
   15.6158   52.6818   12.6026 C   0  0  0  0  0  0  0  0  0  0  0  0
   14.6459   53.6631   12.4702 C   0  0  0  0  0  0  0  0  0  0  0  0
   15.7056   51.9250   13.8019 N   0  0  0  0  0  0  0  0  0  0  0  0
   15.5032   52.4729   15.0957 C   0  0  0  0  0  0  0  0  0  0  0  0
   16.1849   51.9628   16.2774 C   0  0  0  0  0  0  0  0  0  0  0  0
   15.8391   52.4770   17.5081 C   0  0  0  0  0  0  0  0  0  0  0  0
   16.4729   52.0053   18.6523 C   0  0  0  0  0  0  0  0  0  0  0  0
   17.4475   51.0304   18.6095 C   0  0  0  0  0  0  0  0  0  0  0  0
   17.7769   50.5319   17.3691 C   0  0  0  0  0  0  0  0  0  0  0  0
   17.1577   50.9867   16.2083 C   0  0  0  0  0  0  0  0  0  0  0  0
   18.1354   50.5057   19.8109 C   0  0  0  0  0  0  0  0  0  0  0  0
   19.3731   49.9521   19.4268 N   0  0  0  0  0  0  0  0  0  0  0  0
   19.9998   50.4633   18.2531 C   0  0  0  0  0  0  0  0  0  0  0  0
   21.2741   51.1890   18.4891 C   0  0  0  0  0  0  0  0  0  0  0  0
   22.2232   50.5925   19.3572 N   0  0  2  0  0  0  0  0  0  0  0  0
   23.3674   50.1444   18.5440 C   0  0  0  0  0  0  0  0  0  0  0  0
   21.6970   49.4196   19.9674 C   0  0  0  0  0  0  0  0  0  0  0  0
   20.2723   49.5363   20.4532 C   0  0  0  0  0  0  0  0  0  0  0  0
   14.7089   53.4331   15.2413 O   0  0  0  0  0  0  0  0  0  0  0  0
   15.3206   54.9266    9.0520 C   0  0  0  0  0  0  0  0  0  0  0  0
  1  2  1  0
  1  6  2  0
  2  3  2  0
  3  4  1  0
  3  7  1  0
  4  5  2  0
  5  6  1  0
  7  8  1  0
  7 12  2  0
  8  9  2  0
  9 10  1  0
 10 11  2  0
 11 12  1  0
 11 13  1  0
 13 14  1  0
 14 15  2  0
 14 19  1  0
 15 16  1  0
 37 15  1  6
 16 17  2  0
 17 18  1  0
 18 19  2  0
 18 20  1  0
 20 21  1  0
 21 22  1  0
 21 36  2  0
 22 23  1  0
 22 27  2  0
 23 24  2  0
 24 25  1  0
 25 26  2  0
 25 28  1  0
 26 27  1  0
 28 29  1  1
 30 29  1  6
 35 29  1  6
 31 30  1  6
 31 32  1  0
 32 33  1  6
 32 34  1  0
 34 35  1  1
M  CHG  1  32   1
M  END
>  <pose_id>  (8) 
pose-08

>  <reference_rmsd>  (8) 
4.0781000000000001

$$$$
